CPDS_validation_cosim/Distribution/Bus11/IEEE34Bus/ieee34-1_VLL_Node_unbalanced.Txt

LINE-LINE VOLTAGES BY BUS & NODE

Bus       Node    VLN (kV)   Angle      pu     Base kV 

SOURCEBUS 1-2      72.45 /_   60.0      1.05    69.000
   -      2-3      72.45 /_  -60.0      1.05    69.000
   -      3-1      72.45 /_  180.0      1.05    69.000
800 ..... 1-2     26.145 /_   30.0      1.05    24.900
   -      2-3     26.145 /_  -90.0      1.05    24.900
   -      3-1     26.145 /_  150.0      1.05    24.900
802 ..... 1-2     26.085 /_   30.0    1.0476    24.900
   -      2-3     26.092 /_  -90.1    1.0479    24.900
   -      3-1     26.082 /_  149.9    1.0475    24.900
806 ..... 1-2     26.052 /_   29.9    1.0463    24.900
   -      2-3     26.065 /_  -90.1    1.0468    24.900
   -      3-1     26.049 /_  149.9    1.0461    24.900
808 ..... 1-2      25.45 /_   29.4    1.0221    24.900
   -      2-3     25.582 /_  -90.8    1.0274    24.900
   -      3-1     25.433 /_  149.0    1.0214    24.900
812 ..... 1-2     24.755 /_   28.8   0.99419    24.900
   -      2-3     25.031 /_  -91.7    1.0052    24.900
   -      3-1     24.719 /_  148.0   0.99272    24.900
814 ..... 1-2     24.203 /_   28.3   0.97199    24.900
   -      2-3     24.594 /_  -92.4   0.98771    24.900
   -      3-1     24.153 /_  147.1      0.97    24.900
814R .... 1-2     25.615 /_   27.4    1.0287    24.900
   -      2-3     25.359 /_  -92.4    1.0184    24.900
   -      3-1     25.566 /_  148.0    1.0267    24.900
850 ..... 1-2     25.615 /_   27.4    1.0287    24.900
   -      2-3     25.359 /_  -92.4    1.0184    24.900
   -      3-1     25.565 /_  148.0    1.0267    24.900
816 ..... 1-2     25.607 /_   27.4    1.0284    24.900
   -      2-3     25.352 /_  -92.4    1.0182    24.900
   -      3-1     25.557 /_  148.0    1.0264    24.900
824 ..... 1-2      25.39 /_   27.2    1.0197    24.900
   -      2-3     25.132 /_  -92.7    1.0093    24.900
   -      3-1     25.326 /_  147.8    1.0171    24.900
828 ..... 1-2     25.373 /_   27.2     1.019    24.900
   -      2-3     25.115 /_  -92.7    1.0086    24.900
   -      3-1     25.307 /_  147.8    1.0163    24.900
830 ..... 1-2      24.96 /_   26.8    1.0024    24.900
   -      2-3     24.698 /_  -93.1   0.99188    24.900
   -      3-1     24.848 /_  147.4    0.9979    24.900
854 ..... 1-2      24.95 /_   26.8     1.002    24.900
   -      2-3     24.687 /_  -93.1   0.99146    24.900
   -      3-1     24.836 /_  147.4   0.99744    24.900
832 ..... 1-2     26.199 /_   26.2    1.0522    24.900
   -      2-3     25.834 /_  -94.1    1.0375    24.900
   -      3-1     25.911 /_  146.7    1.0406    24.900
858 ..... 1-2     26.145 /_   26.1      1.05    24.900
   -      2-3      25.78 /_  -94.2    1.0353    24.900
   -      3-1     25.848 /_  146.6    1.0381    24.900
834 ..... 1-2     26.083 /_   26.0    1.0475    24.900
   -      2-3     25.718 /_  -94.3    1.0329    24.900
   -      3-1     25.776 /_  146.5    1.0352    24.900
860 ..... 1-2     26.073 /_   26.0    1.0471    24.900
   -      2-3     25.709 /_  -94.3    1.0325    24.900
   -      3-1     25.765 /_  146.5    1.0347    24.900
842 ..... 1-2     26.082 /_   26.0    1.0475    24.900
   -      2-3     25.717 /_  -94.3    1.0328    24.900
   -      3-1     25.775 /_  146.5    1.0351    24.900
836 ..... 1-2     26.066 /_   26.0    1.0468    24.900
   -      2-3     25.702 /_  -94.3    1.0322    24.900
   -      3-1      25.76 /_  146.5    1.0346    24.900
840 ..... 1-2     26.066 /_   26.0    1.0468    24.900
   -      2-3     25.701 /_  -94.3    1.0322    24.900
   -      3-1      25.76 /_  146.5    1.0345    24.900
862 ..... 1-2     26.066 /_   26.0    1.0468    24.900
   -      2-3     25.702 /_  -94.3    1.0322    24.900
   -      3-1      25.76 /_  146.5    1.0346    24.900
844 ..... 1-2     26.075 /_   26.0    1.0472    24.900
   -      2-3      25.71 /_  -94.4    1.0325    24.900
   -      3-1     25.769 /_  146.5    1.0349    24.900
846 ..... 1-2     26.079 /_   25.9    1.0473    24.900
   -      2-3     25.714 /_  -94.4    1.0327    24.900
   -      3-1     25.775 /_  146.5    1.0351    24.900
848 ..... 1-2     26.079 /_   25.9    1.0474    24.900
   -      2-3     25.715 /_  -94.4    1.0327    24.900
   -      3-1     25.776 /_  146.5    1.0352    24.900
852R .... 1-2     26.199 /_   26.2    1.0522    24.900
   -      2-3     25.834 /_  -94.1    1.0375    24.900
   -      3-1     25.911 /_  146.7    1.0406    24.900
888 ..... 1-2     4.2258 /_   24.6    1.0158     4.160
   -      2-3     4.1659 /_  -95.6    1.0014     4.160
   -      3-1     4.1784 /_  145.2    1.0044     4.160
852 ..... 1-2     24.234 /_   26.2   0.97324    24.900
   -      2-3     23.965 /_  -94.0   0.96244    24.900
   -      3-1     24.036 /_  146.6   0.96531    24.900
890 ..... 1-2     3.9048 /_   24.0   0.93865     4.160
   -      2-3     3.8367 /_  -96.7   0.92229     4.160
   -      3-1     3.8304 /_  144.5   0.92076     4.160
